Version 4
SHEET 1 1344 680
WIRE 832 -96 416 -96
WIRE 1120 -96 912 -96
WIRE 672 -16 624 -16
WIRE 800 -16 752 -16
WIRE -32 48 -32 -16
WIRE 512 48 512 16
WIRE 288 64 240 64
WIRE 416 64 416 -96
WIRE 416 64 368 64
WIRE 480 64 416 64
WIRE 1008 64 1008 32
WIRE 624 80 624 -16
WIRE 624 80 544 80
WIRE 688 80 624 80
WIRE 800 80 800 -16
WIRE 800 80 752 80
WIRE 976 80 800 80
WIRE 240 96 240 64
WIRE 480 96 416 96
WIRE 1120 96 1120 -96
WIRE 1120 96 1040 96
WIRE 1168 96 1120 96
WIRE 976 112 928 112
WIRE 512 144 512 112
WIRE 800 144 800 80
WIRE -32 160 -32 128
WIRE -32 160 -112 160
WIRE 416 160 416 96
WIRE 1008 160 1008 128
WIRE -112 192 -112 160
WIRE -32 192 -32 160
WIRE 928 256 928 112
WIRE 976 256 928 256
WIRE 1120 256 1120 96
WIRE 1120 256 1056 256
WIRE 416 272 416 240
WIRE 800 272 800 224
WIRE 928 304 928 256
WIRE -32 336 -32 272
WIRE 928 432 928 384
FLAG -112 192 0
FLAG -32 -16 v+
FLAG -32 336 v-
FLAG 240 96 0
FLAG 512 16 v+
FLAG 512 144 v-
FLAG 1008 32 v-
FLAG 1008 160 v+
FLAG 416 272 0
FLAG 928 432 0
FLAG 1168 96 Vout
IOPIN 1168 96 Out
FLAG 800 272 0
SYMBOL voltage -32 32 R0
WINDOW 123 0 0 Left 0
WINDOW 39 0 0 Left 0
SYMATTR InstName Vcc
SYMATTR Value 10
SYMBOL voltage -32 176 R0
WINDOW 123 0 0 Left 0
WINDOW 39 0 0 Left 0
SYMATTR InstName Vdd
SYMATTR Value 10
SYMBOL res 384 48 R90
WINDOW 0 0 56 VBottom 2
WINDOW 3 32 56 VTop 2
SYMATTR InstName Ri
SYMATTR Value 10k
SYMBOL OpAmps\\opamp2 512 16 R0
SYMATTR InstName A01
SYMATTR Value LM324
SYMBOL res 928 -112 R90
WINDOW 0 0 56 VBottom 2
WINDOW 3 32 56 VTop 2
SYMATTR InstName Rf
SYMATTR Value 90k
SYMBOL OpAmps\\opamp2 1008 160 M180
SYMATTR InstName A02
SYMATTR Value LM6181/NS
SYMBOL voltage 416 144 R0
WINDOW 123 0 0 Left 0
WINDOW 39 0 0 Left 0
SYMATTR InstName V1
SYMATTR Value SINE(0 25m 1k)
SYMBOL res 1072 240 R90
WINDOW 0 0 56 VBottom 2
WINDOW 3 32 56 VTop 2
SYMATTR InstName R2
SYMATTR Value 850
SYMBOL res 944 400 R180
WINDOW 0 36 76 Left 2
WINDOW 3 36 40 Left 2
SYMATTR InstName R1
SYMATTR Value 21.8
SYMBOL cap 752 64 R90
WINDOW 0 0 32 VBottom 2
WINDOW 3 32 32 VTop 2
SYMATTR InstName C1
SYMATTR Value 31p
SYMBOL res 768 -32 R90
WINDOW 0 0 56 VBottom 2
WINDOW 3 32 56 VTop 2
SYMATTR InstName Rx
SYMATTR Value 1k
SYMBOL res 784 128 R0
SYMATTR InstName Ry
SYMATTR Value 1k
TEXT 960 -184 Left 2 !.inc LM324.txt
TEXT 960 -152 Left 2 !.lib LM6181.MOD
TEXT -128 456 Left 2 !.tran 0.01
