Version 4
SHEET 1 1968 680
WIRE -400 48 -400 16
WIRE 384 80 144 80
WIRE 704 80 464 80
WIRE -400 160 -400 128
WIRE -400 160 -512 160
WIRE 224 192 224 160
WIRE -512 208 -512 160
WIRE 16 208 -32 208
WIRE 144 208 144 80
WIRE 144 208 96 208
WIRE 192 208 144 208
WIRE 560 208 560 176
WIRE -400 224 -400 160
WIRE 528 224 256 224
WIRE 192 240 160 240
WIRE 704 240 704 80
WIRE 704 240 592 240
WIRE 848 240 704 240
WIRE 528 256 480 256
WIRE -32 272 -32 208
WIRE 224 288 224 256
WIRE 160 304 160 240
WIRE 560 304 560 272
WIRE 480 320 480 256
WIRE 576 320 480 320
WIRE 704 320 704 240
WIRE 704 320 656 320
WIRE 480 336 480 320
WIRE -400 368 -400 304
WIRE 160 432 160 384
WIRE 480 464 480 416
FLAG -32 272 0
FLAG 160 432 0
FLAG 480 464 0
FLAG 848 240 Vout
IOPIN 848 240 Out
FLAG -512 208 0
FLAG 224 160 v+
FLAG 560 304 v+
FLAG -400 16 v+
FLAG -400 368 v-
FLAG 224 288 v-
FLAG 560 176 v-
SYMBOL OpAmps\\opamp2 224 160 R0
SYMATTR InstName U1
SYMATTR Value LM324
SYMBOL OpAmps\\opamp2 560 304 M180
SYMATTR InstName U2
SYMATTR Value LM324
SYMBOL res 464 320 R0
SYMATTR InstName R1
SYMATTR Value 1k
SYMBOL res 672 304 R90
WINDOW 0 0 56 VBottom 2
WINDOW 3 32 56 VTop 2
SYMATTR InstName R2
SYMATTR Value 21.38k
SYMBOL res 112 192 R90
WINDOW 0 0 56 VBottom 2
WINDOW 3 32 56 VTop 2
SYMATTR InstName Ri
SYMATTR Value 10k
SYMBOL res 480 64 R90
WINDOW 0 0 56 VBottom 2
WINDOW 3 32 56 VTop 2
SYMATTR InstName Rf
SYMATTR Value 90k
SYMBOL voltage 160 288 R0
WINDOW 123 24 124 Left 2
WINDOW 39 0 0 Left 0
SYMATTR InstName V1
SYMATTR Value SINE(0 25m 1000)
SYMATTR Value2 AC 1
SYMBOL voltage -400 32 R0
SYMATTR InstName V2
SYMATTR Value 10
SYMBOL voltage -400 208 R0
SYMATTR InstName V3
SYMATTR Value 10
TEXT 904 -24 Left 2 !,include LM324.txt
TEXT 904 16 Left 2 !.lib C:\\Users\\Guada\\Documents\\GitHub\\SRA\\laboratorios-SRA\\LABN3_SRA\\LM6181.MOD
TEXT -528 488 Left 2 ;.tran 1
TEXT 904 -72 Left 2 !.ac dec 10 100 10000000000
